.model NTE2312 NPN (IS=1E-14 VAF=100
+ BF=60 IKF=0.3 XTB=0 BR=1.0
+ CJC=55E-12 CJE=55E-12 TR=1E-8 TF=3.98e-8
+ ITF=0 VTF=2 XTF=0 RB=0 RC=0 Vceo=400 Icrating = 8 mfg=NTE)